LTspice 24.0.12 for Windows
Circuit: * F:\uni\Circuitos 2\C2\simulaciones\checkpoint4\Buck\Regulador_buck.asc
Start Time: Thu Nov 14 02:21:20 2024
solver = Normal
Maximum thread count: 4
tnom = 27
temp = 27
method = modified trap
Direct Newton iteration for .op point succeeded.
Heightened Def Con from 2e-05 to 2.00011e-05
Total elapsed time: 3.240 seconds.

