LTspice 24.0.12 for Windows
<<<<<<< HEAD
Circuit: * F:\uni\Circuitos 2\C2\simulaciones\checkpoint4\Buck\Regulador_buck.asc
Start Time: Thu Nov 14 02:21:20 2024
=======
Circuit: * C:\Users\leone\Documents\repos\C2\simulaciones\checkpoint4\Buck\Regulador_buck.asc
Start Time: Thu Nov 14 00:33:02 2024
>>>>>>> 4479a10d2a2394a5210217bfbdf0ea7d7d5b4f48
solver = Normal
Maximum thread count: 16
tnom = 27
temp = 27
method = modified trap
Direct Newton iteration for .op point succeeded.
<<<<<<< HEAD
Heightened Def Con from 2e-05 to 2.00011e-05
Total elapsed time: 3.240 seconds.
=======
Heightened Def Con from 0.00118622 to 0.00118622
Heightened Def Con from 0.00139 to 0.00139
Total elapsed time: 4.363 seconds.
>>>>>>> 4479a10d2a2394a5210217bfbdf0ea7d7d5b4f48

