LTspice 24.0.12 for Windows
Circuit: * F:\uni\DCE\Checkpoint 4\Regulador buck\Regulador_buck.asc
Start Time: Mon Nov  4 22:24:03 2024
solver = Normal
Maximum thread count: 4
tnom = 27
temp = 27
method = modified trap
Direct Newton iteration for .op point succeeded.
Total elapsed time: 4.086 seconds.

