LTspice 24.0.12 for Windows
Circuit: * C:\Users\leone\Documents\repos\C2\simulaciones\checkpoint4\Buck\Regulador_buck.asc
Start Time: Thu Nov 14 00:33:02 2024
solver = Normal
Maximum thread count: 16
tnom = 27
temp = 27
method = modified trap
Direct Newton iteration for .op point succeeded.
Heightened Def Con from 0.00118622 to 0.00118622
Heightened Def Con from 0.00139 to 0.00139
Total elapsed time: 4.363 seconds.

