LTspice 24.0.12 for Windows
Circuit: * F:\uni\Circuitos 2\C2\simulaciones\checkpoint4\Buck\Regulador_buck.asc
Start Time: Wed Nov 13 16:28:49 2024
solver = Normal
Maximum thread count: 4
tnom = 27
temp = 27
method = modified trap
Direct Newton iteration for .op point succeeded.
Heightened Def Con from 0.00142617 to 0.00142617
Heightened Def Con from 0.0027 to 0.0027
Total elapsed time: 13.778 seconds.

