Stray ".ends" card: .ends
LTspice 24.0.12 for Windows
Circuit: * Z:\home\becario\repos\C2\ganancia_de_lazo_B.asc
Start Time: Thu Sep 12 14:47:17 2024
Warning: Multiple definitions of model "2scr375p" Type: BJT
Warning: Multiple definitions of model "bc857b" Type: BJT
Warning: Multiple definitions of model "bc847c" Type: BJT
Warning: Multiple definitions of model "bc847b" Type: BJT
solver = Normal
Maximum thread count: 4
tnom = 27
temp = 27
method = modified trap
WARNING: Less than two connections to node 5v.  This node is used by v5.
Direct Newton iteration for .op point succeeded.
Total elapsed time: 0.278 seconds.

