LTspice 24.0.12 for Windows
<<<<<<< HEAD
Circuit: * C:\Users\leone\Documents\repos\C2\par_diferencial.asc
Start Time: Fri Sep 13 16:19:20 2024
=======
Circuit: * F:\uni\DCE\C2\par_diferencial.asc
Start Time: Fri Sep 13 16:31:28 2024
>>>>>>> 754c580173216dad52f4b9261c058b24249291d2
Warning: Multiple definitions of model "2scr375p" Type: BJT
Warning: Multiple definitions of model "bc857b" Type: BJT
Warning: Multiple definitions of model "bc847c" Type: BJT
Warning: Multiple definitions of model "bc847b" Type: BJT
solver = Normal
<<<<<<< HEAD
Maximum thread count: 16
=======
Maximum thread count: 4
>>>>>>> 754c580173216dad52f4b9261c058b24249291d2
tnom = 27
temp = 27
method = modified trap
Direct Newton iteration for .op point succeeded.
<<<<<<< HEAD
Total elapsed time: 0.063 seconds.
=======
Total elapsed time: 0.043 seconds.
>>>>>>> 754c580173216dad52f4b9261c058b24249291d2

