LTspice 24.0.12 for Windows
Circuit: * C:\Users\leone\Documents\repos\C2\par_diferencial.asc
Start Time: Fri Sep 13 16:19:20 2024
Warning: Multiple definitions of model "2scr375p" Type: BJT
Warning: Multiple definitions of model "bc857b" Type: BJT
Warning: Multiple definitions of model "bc847c" Type: BJT
Warning: Multiple definitions of model "bc847b" Type: BJT
solver = Normal
Maximum thread count: 16
tnom = 27
temp = 27
method = modified trap
Direct Newton iteration for .op point succeeded.
Total elapsed time: 0.063 seconds.

