Stray ".ends" card: .ends
LTspice 24.0.12 for Windows
Circuit: * C:\Users\leone\Documents\repos\C2\reguladorA.asc
Start Time: Fri Sep 13 00:45:29 2024
Warning: Multiple definitions of model "2scr375p" Type: BJT
Warning: Multiple definitions of model "bc857b" Type: BJT
Warning: Multiple definitions of model "bc847c" Type: BJT
Warning: Multiple definitions of model "bc847b" Type: BJT
solver = Normal
Maximum thread count: 16
tnom = 27
temp = 27
method = modified trap
Instance "m:u2:1": Length shorter than recommended for a level 1 MOSFET.
Instance "m:u2:8": Length shorter than recommended for a level 1 MOSFET.
Instance "m:u2:2": Length shorter than recommended for a level 1 MOSFET.
Instance "m:u2:3": Length shorter than recommended for a level 1 MOSFET.
Instance "m:u2:4": Length shorter than recommended for a level 1 MOSFET.
Instance "m:u2:5": Length shorter than recommended for a level 1 MOSFET.
Instance "m:u2:19": Length shorter than recommended for a level 1 MOSFET.
Instance "m:u2:23": Length shorter than recommended for a level 1 MOSFET.
Instance "m:u2:53": Length shorter than recommended for a level 1 MOSFET.
Instance "m:u2:41": Length shorter than recommended for a level 1 MOSFET.
Instance "m:u2:42": Length shorter than recommended for a level 1 MOSFET.
Instance "m:u2:43": Length shorter than recommended for a level 1 MOSFET.
Instance "m:u2:44": Length shorter than recommended for a level 1 MOSFET.
Instance "m:u2:49": Length shorter than recommended for a level 1 MOSFET.
Instance "m:u2:50": Length shorter than recommended for a level 1 MOSFET.
Instance "m:u2:45": Length shorter than recommended for a level 1 MOSFET.
Instance "m:u2:46": Length shorter than recommended for a level 1 MOSFET.
Instance "m:u2:48": Length shorter than recommended for a level 1 MOSFET.
Instance "m:u2:51": Length shorter than recommended for a level 1 MOSFET.
Instance "m:u2:52": Length shorter than recommended for a level 1 MOSFET.
Instance "m:u2:54": Length shorter than recommended for a level 1 MOSFET.
Instance "m:u2:55": Length shorter than recommended for a level 1 MOSFET.
Early termination of direct N-R iteration.
Direct Newton iteration failed to find .op point.  (Use ".option noopiter" to skip.)
Starting Gmin stepping
Gmin = 10
vernier = 0.5
Gmin = 1.86414
vernier = 0.25
vernier = 0.125
vernier = 0.0625
vernier = 0.03125
Gmin = 2.01736
vernier = 0.015625
vernier = 0.0078125
Gmin = 1.95549
vernier = 0.00390625
vernier = 0.00195312
vernier = 0.000976562
vernier = 0.000488281
Gmin = 0
Gmin stepping failed

Starting source stepping with srcstepmethod=0
Source Step = 3.0303%
Source Step = 33.3333%
Source Step = 63.6364%
Source Step = 75%
Source Step = 82.5758%
Source Step = 90.1515%
Source Step = 97.7273%
Source stepping succeeded in finding the operating point.


vo1rl: v(vo)=4.97147 at 6.15
vo2rl: v(vo)=4.97194 at 6.35
reglin: ((vo2rl-vo1rl)/1.85)=0.000250662

Total elapsed time: 0.716 seconds.

