Stray ".ends" card: .ends
LTspice 24.0.12 for Windows
Circuit: * C:\Users\leone\Documents\repos\C2\reguladorA.asc
Start Time: Fri Sep 13 07:14:09 2024
Warning: Multiple definitions of model "2scr375p" Type: BJT
Warning: Multiple definitions of model "bc857b" Type: BJT
Warning: Multiple definitions of model "bc847c" Type: BJT
Warning: Multiple definitions of model "bc847b" Type: BJT
solver = Normal
Maximum thread count: 16
tnom = 27
temp = 27
method = modified trap
Instance "m:u2:1": Length shorter than recommended for a level 1 MOSFET.
Instance "m:u2:8": Length shorter than recommended for a level 1 MOSFET.
Instance "m:u2:2": Length shorter than recommended for a level 1 MOSFET.
Instance "m:u2:3": Length shorter than recommended for a level 1 MOSFET.
Instance "m:u2:4": Length shorter than recommended for a level 1 MOSFET.
Instance "m:u2:5": Length shorter than recommended for a level 1 MOSFET.
Instance "m:u2:19": Length shorter than recommended for a level 1 MOSFET.
Instance "m:u2:23": Length shorter than recommended for a level 1 MOSFET.
Instance "m:u2:53": Length shorter than recommended for a level 1 MOSFET.
Instance "m:u2:41": Length shorter than recommended for a level 1 MOSFET.
Instance "m:u2:42": Length shorter than recommended for a level 1 MOSFET.
Instance "m:u2:43": Length shorter than recommended for a level 1 MOSFET.
Instance "m:u2:44": Length shorter than recommended for a level 1 MOSFET.
Instance "m:u2:49": Length shorter than recommended for a level 1 MOSFET.
Instance "m:u2:50": Length shorter than recommended for a level 1 MOSFET.
Instance "m:u2:45": Length shorter than recommended for a level 1 MOSFET.
Instance "m:u2:46": Length shorter than recommended for a level 1 MOSFET.
Instance "m:u2:48": Length shorter than recommended for a level 1 MOSFET.
Instance "m:u2:51": Length shorter than recommended for a level 1 MOSFET.
Instance "m:u2:52": Length shorter than recommended for a level 1 MOSFET.
Instance "m:u2:54": Length shorter than recommended for a level 1 MOSFET.
Instance "m:u2:55": Length shorter than recommended for a level 1 MOSFET.
Early termination of direct N-R iteration.
Direct Newton iteration failed to find .op point.  (Use ".option noopiter" to skip.)
Starting Gmin stepping
Gmin = 10
vernier = 0.5
vernier = 0.25
vernier = 0.125
vernier = 0.0625
Gmin = 8.61953
vernier = 0.03125
vernier = 0.015625
vernier = 0.0078125
vernier = 0.00390625
Gmin = 8.47038
vernier = 0.00195312
vernier = 0.000976562
vernier = 0.000488281
Gmin = 0
Gmin stepping failed

Starting source stepping with srcstepmethod=0
Source Step = 3.0303%
Source Step = 33.3333%
Source Step = 63.6364%
Source Step = 70.8333%
Source Step = 72.7273%
Source Step = 74.6212%
Source Step = 76.5152%
Source Step = 78.4091%
vernier = 0.09375
Source Step = 80.7765%
vernier = 0.0234375
Source Step = 80.5279%
Source Step = 80.5723%
Source Step = 80.6167%
Source Step = 80.6611%
Source Step = 80.7055%
vernier = 0.00219727
Source Step = 80.7654%
Source Step = 80.832%
Source Step = 80.8986%
Source Step = 80.9652%
Source Step = 81.0318%
Source Step = 81.0983%
vernier = 0.0032959
Source Step = 81.1949%
Source Step = 81.2948%
Source Step = 81.3946%
Source Step = 81.4945%
Source Step = 81.5944%
vernier = 0.00494385
Source Step = 81.7342%
Source Step = 81.884%
Source Step = 82.0338%
Source Step = 82.1837%
Source Step = 82.3335%
vernier = 0.00741577
Source Step = 82.5357%
Source Step = 82.7604%
Source Step = 82.9852%
Source Step = 83.2099%
Source Step = 83.4346%
vernier = 0.0111237
Source Step = 83.7267%
Source Step = 84.0638%
Source Step = 84.4009%
Source Step = 84.738%
Source Step = 85.0751%
vernier = 0.0166855
Source Step = 85.4964%
Source Step = 86.002%
Source Step = 86.1695%
Source Step = 86.2011%
Source Step = 86.2327%
Source Step = 86.2643%
Source Step = 86.2959%
vernier = 0.00156426
Source Step = 86.3323%
Source Step = 86.3797%
Source Step = 86.4271%
Source Step = 86.4745%
Source Step = 86.5219%
vernier = 0.0023464
Source Step = 86.574%
Source Step = 86.6451%
Source Step = 86.7162%
Source Step = 86.7873%
Source Step = 86.8584%
vernier = 0.00351959
Source Step = 86.9331%
Source Step = 87.0397%
Source Step = 87.1464%
Source Step = 87.253%
Source Step = 87.3597%
Source Step = 87.4664%
vernier = 0.00527939
Source Step = 87.6263%
Source Step = 87.7863%
Source Step = 87.9463%
Source Step = 88.1063%
Source Step = 88.2663%
vernier = 0.00791909
Source Step = 88.4982%
Source Step = 88.7382%
Source Step = 88.9782%
Source Step = 89.2181%
Source Step = 89.4581%
vernier = 0.0118786
Source Step = 89.7941%
Source Step = 90.091%
Source Step = 90.181%
Source Step = 90.271%
Source Step = 90.361%
Source Step = 90.451%
Source Step = 90.541%
Source Step = 90.631%
Source Step = 90.721%
Source Step = 90.811%
Source Step = 90.901%
Source Step = 90.9909%
Source Step = 91.0809%
Source Step = 91.1709%
Source Step = 91.2609%
Source Step = 91.3509%
Source Step = 91.4409%
Source Step = 91.5309%
Source Step = 91.6209%
Source Step = 91.7109%
Source Step = 91.8009%
Source Step = 91.8908%
Source Step = 91.9808%
Source Step = 92.0708%
Source Step = 92.1608%
Source Step = 92.2508%
Source Step = 92.3408%
Source Step = 92.4308%
Source Step = 92.5208%
Source Step = 92.6108%
Source Step = 92.7007%
Source Step = 92.7907%
Source Step = 92.8807%
Source Step = 92.9707%
Source Step = 93.0607%
Source Step = 93.1507%
Source Step = 93.2407%
vernier = 0.00445449
Source Step = 93.3352%
Source Step = 93.4702%
Source Step = 93.6051%
Source Step = 93.7401%
Source Step = 93.8751%
Source Step = 94.0101%
vernier = 0.00668173
Source Step = 94.2126%
Source Step = 94.4151%
Source Step = 94.6175%
Source Step = 94.82%
Source Step = 95.0225%
vernier = 0.0100226
Source Step = 95.3161%
Source Step = 95.6198%
Source Step = 95.9235%
Source Step = 96.2272%
Source Step = 96.5309%
vernier = 0.0150339
Source Step = 96.9561%
Source Step = 97.4117%
Source Step = 97.8673%
Source Step = 98.3229%
Source Step = 98.7784%
vernier = 0.0225508
Source Step = 99.3934%
Source stepping succeeded in finding the operating point.



Total elapsed time: 18.064 seconds.

