Stray ".ends" card: .ends
LTspice 24.0.12 for Windows
Circuit: * C:\Users\leone\Documents\repos\C2\simulaciones\checkpoint3\reguladorB.asc
Start Time: Wed Oct  2 12:15:43 2024
Warning: Multiple definitions of model "2scr375p" Type: BJT
Warning: Multiple definitions of model "bc857b" Type: BJT
Warning: Multiple definitions of model "bc847c" Type: BJT
Warning: Multiple definitions of model "bc847b" Type: BJT
Error on line 41 : v3 5v 0 5,5
	 Unknown parameter "5"
solver = Normal
Maximum thread count: 16
tnom = 27
temp = 27
method = modified trap
noOpIter = 1
WARNING: Less than two connections to node n010.  This node is used by r30.
Instance "m:u2:12": Length shorter than recommended for a level 1 MOSFET.
Instance "m:u2:14": Length shorter than recommended for a level 1 MOSFET.
Direct Newton iteration for .op point skipped.
Starting Gmin stepping
Increasing initial diagonal Gmin to 100
Increasing initial diagonal Gmin to 1000
Gmin = 1000
Gmin = 107.374
Gmin = 11.5292
vernier = 0.5
vernier = 0.25
vernier = 0.125
vernier = 0.0625
vernier = 0.03125
vernier = 0.015625
vernier = 0.0078125
vernier = 0.00390625
Gmin = 9.22337
vernier = 0.00195312
vernier = 0.000976562
vernier = 0.000488281
Gmin = 0
Gmin stepping failed

Starting source stepping with srcstepmethod=0
Source Step = 3.0303%
Source Step = 33.3333%
Source Step = 63.6364%
Source Step = 93.9394%
Source stepping succeeded in finding the operating point.



Total elapsed time: 1.640 seconds.

