Stray ".ends" card: .ends
LTspice 24.0.12 for Windows
Circuit: * C:\Users\leone\Documents\repos\C2\simulaciones\checkpoint3\reguladorB.asc
Start Time: Mon Sep 30 19:16:40 2024
Warning: Multiple definitions of model "2scr375p" Type: BJT
Warning: Multiple definitions of model "bc857b" Type: BJT
Warning: Multiple definitions of model "bc847c" Type: BJT
Warning: Multiple definitions of model "bc847b" Type: BJT
Error on line 40 : v3 5v 0 5,5
	 Unknown parameter "5"
solver = Normal
Maximum thread count: 16
tnom = 27
temp = 27
method = modified trap
WARNING: Less than two connections to node n010.  This node is used by r30.
Early termination of direct N-R iteration.
Direct Newton iteration failed to find .op point.  (Use ".option noopiter" to skip.)
Starting Gmin stepping
Gmin = 10
vernier = 0.5
vernier = 0.25
vernier = 0.125
vernier = 0.0625
Gmin = 8.61953
vernier = 0.03125
vernier = 0.015625
vernier = 0.0078125
vernier = 0.00390625
Gmin = 8.47038
vernier = 0.00195312
vernier = 0.000976562
vernier = 0.000488281
Gmin = 0
Gmin stepping failed

Starting source stepping with srcstepmethod=0
Source Step = 3.0303%
Source Step = 33.3333%
vernier = 0.25
Source Step = 37.8788%
Source Step = 45.4545%
Source Step = 53.0303%
Source Step = 60.6061%
Source Step = 68.1818%
vernier = 0.375
Source Step = 79.1667%
Source Step = 86.0026%
vernier = 0.00146484
Source Step = 86.0292%
Source Step = 86.0736%
Source Step = 86.118%
Source Step = 86.1624%
Source Step = 86.2068%
vernier = 0.00219727
Source Step = 86.2667%
Source Step = 86.3333%
Source Step = 86.3999%
Source Step = 86.4665%
Source Step = 86.5331%
vernier = 0.0032959
Source Step = 86.6196%
Source Step = 86.7195%
Source Step = 86.8194%
Source Step = 86.9192%
Source Step = 87.0191%
vernier = 0.00494385
Source Step = 87.144%
Source Step = 87.2938%
Source Step = 87.4436%
Source Step = 87.5934%
Source Step = 87.7432%
vernier = 0.00741577
Source Step = 87.923%
Source Step = 88.1477%
Source Step = 88.3724%
Source Step = 88.5972%
Source Step = 88.8219%
vernier = 0.0111237
Source Step = 89.0803%
Source Step = 89.4174%
Source Step = 89.7545%
Source Step = 90.0915%
Source Step = 90.4286%
vernier = 0.0166855
Source Step = 90.7994%
Source Step = 91.305%
Source Step = 91.8107%
Source Step = 92.3163%
Source Step = 92.8219%
vernier = 0.0250282
Source Step = 93.3528%
Source Step = 94.1112%
Source Step = 94.8697%
Source Step = 95.6281%
Source Step = 96.3865%
Source Step = 97.145%
vernier = 0.0375423
Source Step = 98.2826%
Source Step = 99.4202%
Source stepping succeeded in finding the operating point.



Total elapsed time: 2.738 seconds.

