LTspice 24.0.12 for Windows
Circuit: * C:\Users\leone\Documents\repos\C2\simulaciones\checkpoint4\Support\prueba.asc
Start Time: Thu Dec  5 20:28:52 2024
Fatal Error: Unknown subcircuit called in:
   xu1 0 vb r tl431
