Stray ".ends" card: .ends
LTspice 24.0.12 for Windows
Circuit: * C:\Users\leone\Documents\repos\C2\simulaciones\checkpoint2\reguladorB.asc
Start Time: Sat Sep 21 21:30:18 2024
Warning: Multiple definitions of model "2scr375p" Type: BJT
Warning: Multiple definitions of model "bc857b" Type: BJT
Warning: Multiple definitions of model "bc847c" Type: BJT
Warning: Multiple definitions of model "bc847b" Type: BJT
solver = Normal
Maximum thread count: 16
tnom = 27
temp = 27
method = modified trap
Instance "m:u2:1": Length shorter than recommended for a level 1 MOSFET.
Instance "m:u2:8": Length shorter than recommended for a level 1 MOSFET.
Instance "m:u2:2": Length shorter than recommended for a level 1 MOSFET.
Instance "m:u2:3": Length shorter than recommended for a level 1 MOSFET.
Instance "m:u2:4": Length shorter than recommended for a level 1 MOSFET.
Instance "m:u2:5": Length shorter than recommended for a level 1 MOSFET.
Instance "m:u2:19": Length shorter than recommended for a level 1 MOSFET.
Instance "m:u2:23": Length shorter than recommended for a level 1 MOSFET.
Instance "m:u2:53": Length shorter than recommended for a level 1 MOSFET.
Instance "m:u2:41": Length shorter than recommended for a level 1 MOSFET.
Instance "m:u2:42": Length shorter than recommended for a level 1 MOSFET.
Instance "m:u2:43": Length shorter than recommended for a level 1 MOSFET.
Instance "m:u2:44": Length shorter than recommended for a level 1 MOSFET.
Instance "m:u2:49": Length shorter than recommended for a level 1 MOSFET.
Instance "m:u2:50": Length shorter than recommended for a level 1 MOSFET.
Instance "m:u2:45": Length shorter than recommended for a level 1 MOSFET.
Instance "m:u2:46": Length shorter than recommended for a level 1 MOSFET.
Instance "m:u2:48": Length shorter than recommended for a level 1 MOSFET.
Instance "m:u2:51": Length shorter than recommended for a level 1 MOSFET.
Instance "m:u2:52": Length shorter than recommended for a level 1 MOSFET.
Instance "m:u2:54": Length shorter than recommended for a level 1 MOSFET.
Instance "m:u2:55": Length shorter than recommended for a level 1 MOSFET.
Early termination of direct N-R iteration.
Direct Newton iteration failed to find .op point.  (Use ".option noopiter" to skip.)
Starting Gmin stepping
Gmin = 10
vernier = 0.5
vernier = 0.25
vernier = 0.125
vernier = 0.0625
Gmin = 8.61953
vernier = 0.03125
vernier = 0.015625
vernier = 0.0078125
vernier = 0.00390625
Gmin = 8.47038
vernier = 0.00195312
vernier = 0.000976562
vernier = 0.000488281
Gmin = 0
Gmin stepping failed

Starting source stepping with srcstepmethod=0
Source Step = 3.0303%
Source Step = 33.3333%
Source Step = 38.4943%
Source Step = 38.9678%
Source Step = 39.4413%
Source Step = 39.9148%
Source Step = 40.3883%
Source Step = 40.8617%
vernier = 0.0234375
Source Step = 41.572%
Source Step = 42.2822%
Source Step = 42.9924%
Source Step = 43.7027%
Source Step = 44.4129%
vernier = 0.0351562
Source Step = 45.4427%
Source Step = 46.508%
Source Step = 47.5734%
Source Step = 48.6387%
Source Step = 49.7041%
vernier = 0.0527344
Source Step = 51.1955%
Source Step = 52.7936%
Source Step = 54.3916%
Source Step = 55.9896%
Source Step = 57.5876%
vernier = 0.0791016
Source Step = 59.7449%
Source Step = 62.1419%
Source Step = 64.5389%
Source Step = 66.936%
Source Step = 69.333%
vernier = 0.118652
Source Step = 72.4491%
Source Step = 76.0446%
Source Step = 79.6402%
Source Step = 83.2357%
Source Step = 86.8312%
vernier = 0.177979
Source Step = 91.3256%
Source Step = 96.7189%
Source stepping succeeded in finding the operating point.



Total elapsed time: 1.897 seconds.

