Stray ".ends" card: .ends
LTspice 24.0.12 for Windows
<<<<<<< HEAD
Circuit: * C:\Users\leone\Documents\repos\C2\simulaciones\checkpoint2\reguladorA.asc
Start Time: Fri Sep 27 00:33:50 2024
=======
Circuit: * F:\uni\DCE\C2\simulaciones\checkpoint2\reguladorA.asc
Start Time: Tue Sep 24 23:23:29 2024
>>>>>>> 496865cbf274c99a2298f5f20a94650800827c81
Warning: Multiple definitions of model "2scr375p" Type: BJT
Warning: Multiple definitions of model "bc857b" Type: BJT
Warning: Multiple definitions of model "bc847c" Type: BJT
Warning: Multiple definitions of model "bc847b" Type: BJT
solver = Normal
Maximum thread count: 16
tnom = 27
temp = 27
method = modified trap
WARNING: Less than two connections to node n011.  This node is used by r6.
WARNING: Less than two connections to node n020.  This node is used by v6.
Instance "m:u2:1": Length shorter than recommended for a level 1 MOSFET.
Instance "m:u2:8": Length shorter than recommended for a level 1 MOSFET.
Instance "m:u2:2": Length shorter than recommended for a level 1 MOSFET.
Instance "m:u2:3": Length shorter than recommended for a level 1 MOSFET.
Instance "m:u2:4": Length shorter than recommended for a level 1 MOSFET.
Instance "m:u2:5": Length shorter than recommended for a level 1 MOSFET.
Instance "m:u2:19": Length shorter than recommended for a level 1 MOSFET.
Instance "m:u2:23": Length shorter than recommended for a level 1 MOSFET.
Instance "m:u2:53": Length shorter than recommended for a level 1 MOSFET.
Instance "m:u2:41": Length shorter than recommended for a level 1 MOSFET.
Instance "m:u2:42": Length shorter than recommended for a level 1 MOSFET.
Instance "m:u2:43": Length shorter than recommended for a level 1 MOSFET.
Instance "m:u2:44": Length shorter than recommended for a level 1 MOSFET.
Instance "m:u2:49": Length shorter than recommended for a level 1 MOSFET.
Instance "m:u2:50": Length shorter than recommended for a level 1 MOSFET.
Instance "m:u2:45": Length shorter than recommended for a level 1 MOSFET.
Instance "m:u2:46": Length shorter than recommended for a level 1 MOSFET.
Instance "m:u2:48": Length shorter than recommended for a level 1 MOSFET.
Instance "m:u2:51": Length shorter than recommended for a level 1 MOSFET.
Instance "m:u2:52": Length shorter than recommended for a level 1 MOSFET.
Instance "m:u2:54": Length shorter than recommended for a level 1 MOSFET.
Instance "m:u2:55": Length shorter than recommended for a level 1 MOSFET.
Early termination of direct N-R iteration.
Direct Newton iteration failed to find .op point.  (Use ".option noopiter" to skip.)
Starting Gmin stepping
Gmin = 10
vernier = 0.5
Gmin = 1.86414
vernier = 0.666667
vernier = 0.333333
vernier = 0.166667
vernier = 0.0833333
vernier = 0.0416667
Gmin = 0.997517
vernier = 0.0208333
vernier = 0.0104167
vernier = 0.00520833
vernier = 0.00260417
vernier = 0.00130208
vernier = 0.000651042
vernier = 0.000488281
Gmin = 0
Gmin stepping failed

Starting source stepping with srcstepmethod=0
Source Step = 3.0303%
Source Step = 33.3333%
Source Step = 40.1515%
Source Step = 47.7273%
Source Step = 55.303%
Source Step = 62.8788%
Source Step = 70.4545%
vernier = 0.375
Source Step = 81.0606%
Source Step = 92.4242%
Source stepping succeeded in finding the operating point.



<<<<<<< HEAD
Total elapsed time: 0.920 seconds.
=======
Total elapsed time: 2.276 seconds.
>>>>>>> 496865cbf274c99a2298f5f20a94650800827c81

