Stray ".ends" card: .ends
LTspice 24.0.12 for Windows
Circuit: * C:\Users\leone\Documents\repos\C2\simulaciones\checkpoint2\reguladorB.asc
Start Time: Mon Sep 30 11:03:47 2024
Warning: Multiple definitions of model "2scr375p" Type: BJT
Warning: Multiple definitions of model "bc857b" Type: BJT
Warning: Multiple definitions of model "bc847c" Type: BJT
Warning: Multiple definitions of model "bc847b" Type: BJT
solver = Normal
Maximum thread count: 16
tnom = 27
temp = 27
method = modified trap
WARNING: Less than two connections to node n015.  This node is used by s1.
Instance "m:u2:1": Length shorter than recommended for a level 1 MOSFET.
Instance "m:u2:8": Length shorter than recommended for a level 1 MOSFET.
Instance "m:u2:2": Length shorter than recommended for a level 1 MOSFET.
Instance "m:u2:3": Length shorter than recommended for a level 1 MOSFET.
Instance "m:u2:4": Length shorter than recommended for a level 1 MOSFET.
Instance "m:u2:5": Length shorter than recommended for a level 1 MOSFET.
Instance "m:u2:19": Length shorter than recommended for a level 1 MOSFET.
Instance "m:u2:23": Length shorter than recommended for a level 1 MOSFET.
Instance "m:u2:53": Length shorter than recommended for a level 1 MOSFET.
Instance "m:u2:41": Length shorter than recommended for a level 1 MOSFET.
Instance "m:u2:42": Length shorter than recommended for a level 1 MOSFET.
Instance "m:u2:43": Length shorter than recommended for a level 1 MOSFET.
Instance "m:u2:44": Length shorter than recommended for a level 1 MOSFET.
Instance "m:u2:49": Length shorter than recommended for a level 1 MOSFET.
Instance "m:u2:50": Length shorter than recommended for a level 1 MOSFET.
Instance "m:u2:45": Length shorter than recommended for a level 1 MOSFET.
Instance "m:u2:46": Length shorter than recommended for a level 1 MOSFET.
Instance "m:u2:48": Length shorter than recommended for a level 1 MOSFET.
Instance "m:u2:51": Length shorter than recommended for a level 1 MOSFET.
Instance "m:u2:52": Length shorter than recommended for a level 1 MOSFET.
Instance "m:u2:54": Length shorter than recommended for a level 1 MOSFET.
Instance "m:u2:55": Length shorter than recommended for a level 1 MOSFET.
Early termination of direct N-R iteration.
Direct Newton iteration failed to find .op point.  (Use ".option noopiter" to skip.)
Starting Gmin stepping
Gmin = 10
vernier = 0.5
Gmin = 1.86414
vernier = 0.25
vernier = 0.125
vernier = 0.0625
Gmin = 1.5766
vernier = 0.03125
vernier = 0.015625
vernier = 0.0078125
Gmin = 1.55221
vernier = 0.0104167
vernier = 0.00520833
vernier = 0.00260417
Gmin = 1.53614
vernier = 0.00130208
vernier = 0.00173611
Gmin = 1.53131
vernier = 0.00231481
vernier = 0.00115741
vernier = 0.000578703
Gmin = 1.52777
vernier = 0.000771604
vernier = 0.000578703
Gmin = 1.52586
vernier = 0.000771604
vernier = 0.000578703
Gmin = 1.52395
vernier = 0.000771604
vernier = 0.000578703
Gmin = 1.52211
vernier = 0.000771604
vernier = 0.0010288
Gmin = 1.51896
vernier = 0.000514402
Gmin = 0
Gmin stepping failed

Starting source stepping with srcstepmethod=0
Source Step = 3.0303%
Source Step = 33.3333%
Source Step = 63.6364%
Source Step = 70.8333%
Source Step = 72.7273%
Source Step = 74.6212%
Source Step = 74.6419%
Source Step = 74.6715%
Source Step = 74.7011%
Source Step = 74.7307%
Source Step = 74.7603%
vernier = 0.00146484
Source Step = 74.7973%
Source Step = 74.8417%
Source Step = 74.8861%
Source Step = 74.9305%
Source Step = 74.9748%
vernier = 0.00219727
Source Step = 75.0281%
Source Step = 75.0947%
Source Step = 75.1613%
Source Step = 75.2279%
Source Step = 75.2944%
vernier = 0.0032959
Source Step = 75.371%
Source Step = 75.4709%
Source Step = 75.5708%
Source Step = 75.6706%
Source Step = 75.7705%
vernier = 0.00494385
Source Step = 75.8804%
Source Step = 76.0302%
Source Step = 76.18%
Source Step = 76.3298%
Source Step = 76.4796%
vernier = 0.00741577
Source Step = 76.6369%
Source Step = 76.8617%
Source Step = 77.0864%
Source Step = 77.3111%
Source Step = 77.5358%
Source Step = 77.7605%
vernier = 0.0111237
Source Step = 78.0976%
Source Step = 78.4347%
Source Step = 78.7718%
Source Step = 79.1089%
Source Step = 79.4459%
vernier = 0.0166855
Source Step = 79.9347%
Source Step = 80.4403%
Source Step = 80.946%
Source Step = 81.4516%
Source Step = 81.9572%
vernier = 0.0250282
Source Step = 82.6651%
Source Step = 83.4235%
Source Step = 83.8169%
Source Step = 83.8643%
Source Step = 83.9117%
Source Step = 83.9591%
Source Step = 84.0065%
vernier = 0.0023464
Source Step = 84.0563%
Source Step = 84.1274%
Source Step = 84.1985%
Source Step = 84.2696%
Source Step = 84.3407%
Source Step = 84.4118%
vernier = 0.00351959
Source Step = 84.5185%
Source Step = 84.6251%
Source Step = 84.7318%
Source Step = 84.8384%
Source Step = 84.9451%
vernier = 0.00527939
Source Step = 85.0998%
Source Step = 85.2597%
Source Step = 85.4197%
Source Step = 85.5797%
Source Step = 85.7397%
vernier = 0.00791909
Source Step = 85.9637%
Source Step = 86.2036%
Source Step = 86.4436%
Source Step = 86.6836%
Source Step = 86.9235%
vernier = 0.0118786
Source Step = 87.2475%
Source Step = 87.6075%
Source Step = 87.9674%
Source Step = 88.3274%
Source Step = 88.6873%
vernier = 0.0178179
Source Step = 89.1553%
Source Step = 89.6952%
Source Step = 90.1407%
vernier = 0.00111362
Source Step = 90.1609%
Source Step = 90.1947%
Source Step = 90.2284%
Source Step = 90.2622%
Source Step = 90.2959%
Source Step = 90.3296%
Source Step = 90.3634%
Source Step = 90.3971%
Source Step = 90.4309%
Source Step = 90.4646%
Source Step = 90.4984%
Source Step = 90.5321%
Source Step = 90.5659%
Source Step = 90.5996%
Source Step = 90.6334%
Source Step = 90.6671%
Source Step = 90.7009%
Source Step = 90.7346%
Source Step = 90.7683%
Source Step = 90.8021%
Source Step = 90.8358%
Source Step = 90.8696%
Source Step = 90.9033%
Source Step = 90.9371%
Source Step = 90.9708%
Source Step = 91.0046%
Source Step = 91.0383%
Source Step = 91.0721%
Source Step = 91.1058%
Source Step = 91.1396%
Source Step = 91.1733%
Source Step = 91.207%
Source Step = 91.2408%
Source Step = 91.2745%
Source Step = 91.3083%
Source Step = 91.342%
Source Step = 91.3758%
Source Step = 91.4095%
Source Step = 91.4433%
Source Step = 91.477%
Source Step = 91.5108%
Source Step = 91.5445%
Source Step = 91.5783%
Source Step = 91.612%
Source Step = 91.6457%
Source Step = 91.6795%
Source Step = 91.7132%
Source Step = 91.747%
Source Step = 91.7807%
Source Step = 91.8145%
Source Step = 91.8482%
Source Step = 91.882%
Source Step = 91.9157%
Source Step = 91.9495%
Source Step = 91.9832%
Source Step = 92.017%
Source Step = 92.0507%
vernier = 0.00167043
Source Step = 92.0929%
Source Step = 92.1435%
Source Step = 92.1941%
Source Step = 92.2447%
Source Step = 92.2954%
vernier = 0.00250565
Source Step = 92.3561%
Source Step = 92.432%
Source Step = 92.508%
Source Step = 92.5839%
Source Step = 92.6598%
vernier = 0.00375847
Source Step = 92.7471%
Source Step = 92.861%
Source Step = 92.9749%
Source Step = 93.0888%
Source Step = 93.2027%
vernier = 0.00563771
Source Step = 93.328%
Source Step = 93.4988%
Source Step = 93.6697%
Source Step = 93.8405%
Source Step = 94.0113%
vernier = 0.00845657
Source Step = 94.1907%
Source Step = 94.447%
Source Step = 94.7032%
Source Step = 94.9595%
Source Step = 95.2158%
Source Step = 95.472%
vernier = 0.0126848
Source Step = 95.8564%
Source Step = 96.2408%
Source Step = 96.6252%
Source Step = 97.0096%
Source Step = 97.394%
vernier = 0.0190273
Source Step = 97.9513%
Source Step = 98.5279%
Source Step = 99.1045%
Source Step = 99.6811%
Source stepping succeeded in finding the operating point.



Total elapsed time: 36.305 seconds.

