Stray ".ends" card: .ends
LTspice 24.0.12 for Windows
Circuit: * C:\Users\leone\Documents\repos\C2\simulaciones\checkpoint2\reguladorB.asc
Start Time: Tue Sep 24 23:11:48 2024
Warning: Multiple definitions of model "2scr375p" Type: BJT
Warning: Multiple definitions of model "bc857b" Type: BJT
Warning: Multiple definitions of model "bc847c" Type: BJT
Warning: Multiple definitions of model "bc847b" Type: BJT
solver = Normal
Maximum thread count: 16
tnom = 27
temp = 27
method = modified trap
Instance "m:u2:1": Length shorter than recommended for a level 1 MOSFET.
Instance "m:u2:8": Length shorter than recommended for a level 1 MOSFET.
Instance "m:u2:2": Length shorter than recommended for a level 1 MOSFET.
Instance "m:u2:3": Length shorter than recommended for a level 1 MOSFET.
Instance "m:u2:4": Length shorter than recommended for a level 1 MOSFET.
Instance "m:u2:5": Length shorter than recommended for a level 1 MOSFET.
Instance "m:u2:19": Length shorter than recommended for a level 1 MOSFET.
Instance "m:u2:23": Length shorter than recommended for a level 1 MOSFET.
Instance "m:u2:53": Length shorter than recommended for a level 1 MOSFET.
Instance "m:u2:41": Length shorter than recommended for a level 1 MOSFET.
Instance "m:u2:42": Length shorter than recommended for a level 1 MOSFET.
Instance "m:u2:43": Length shorter than recommended for a level 1 MOSFET.
Instance "m:u2:44": Length shorter than recommended for a level 1 MOSFET.
Instance "m:u2:49": Length shorter than recommended for a level 1 MOSFET.
Instance "m:u2:50": Length shorter than recommended for a level 1 MOSFET.
Instance "m:u2:45": Length shorter than recommended for a level 1 MOSFET.
Instance "m:u2:46": Length shorter than recommended for a level 1 MOSFET.
Instance "m:u2:48": Length shorter than recommended for a level 1 MOSFET.
Instance "m:u2:51": Length shorter than recommended for a level 1 MOSFET.
Instance "m:u2:52": Length shorter than recommended for a level 1 MOSFET.
Instance "m:u2:54": Length shorter than recommended for a level 1 MOSFET.
Instance "m:u2:55": Length shorter than recommended for a level 1 MOSFET.
Early termination of direct N-R iteration.
Direct Newton iteration failed to find .op point.  (Use ".option noopiter" to skip.)
Starting Gmin stepping
Gmin = 10
Gmin = 1.07374
vernier = 0.5
vernier = 0.25
vernier = 0.125
vernier = 0.0625
vernier = 0.03125
Gmin = 1.16552
vernier = 0.015625
vernier = 0.0078125
vernier = 0.00390625
vernier = 0.00195312
vernier = 0.000976562
vernier = 0.000488281
Singular matrix:  Check node v:u1:ln#branch
   Iteration No. 2
Gmin = 0
Singular matrix:  Check node v:u1:ln#branch
   Iteration No. 1
Gmin stepping failed

Starting source stepping with srcstepmethod=0
Source Step = 3.0303%
Source Step = 33.3333%
Source Step = 63.6364%
Source Step = 69.7058%
Source Step = 69.7354%
Source Step = 69.765%
Source Step = 69.7946%
Source Step = 69.8242%
vernier = 0.00146484
Source Step = 69.8553%
Source Step = 69.8997%
Source Step = 69.9441%
Source Step = 69.9885%
Source Step = 70.0328%
Source Step = 70.0772%
vernier = 0.00219727
Source Step = 70.1438%
Source Step = 70.2104%
Source Step = 70.277%
Source Step = 70.3436%
Source Step = 70.4102%
vernier = 0.0032959
Source Step = 70.5067%
Source Step = 70.6066%
Source Step = 70.7065%
Source Step = 70.8063%
Source Step = 70.9062%
vernier = 0.00494385
Source Step = 71.046%
Source Step = 71.1958%
Source Step = 71.3457%
Source Step = 71.4955%
Source Step = 71.6453%
vernier = 0.00741577
Source Step = 71.8475%
Source Step = 72.0723%
Source Step = 72.297%
Source Step = 72.5217%
Source Step = 72.7464%
vernier = 0.0111237
Source Step = 73.0386%
Source Step = 73.3756%
Source Step = 73.7127%
Source Step = 74.0498%
Source Step = 74.3869%
vernier = 0.0166855
Source Step = 74.8082%
Source Step = 75.3138%
Source Step = 75.8195%
Source Step = 76.3251%
Source Step = 76.8307%
vernier = 0.0250282
Source Step = 77.4375%
Source Step = 78.1959%
Source Step = 78.9543%
Source Step = 79.7127%
Source Step = 80.4712%
vernier = 0.0375423
Source Step = 81.3434%
Source Step = 82.481%
Source Step = 83.6187%
Source Step = 84.1022%
Source Step = 84.1733%
Source Step = 84.2444%
Source Step = 84.3155%
Source Step = 84.3866%
vernier = 0.00351959
Source Step = 84.4648%
Source Step = 84.5714%
Source Step = 84.6781%
Source Step = 84.7848%
Source Step = 84.8914%
vernier = 0.00527939
Source Step = 85.0034%
Source Step = 85.1634%
Source Step = 85.3234%
Source Step = 85.4833%
Source Step = 85.6433%
Source Step = 85.8033%
vernier = 0.00791909
Source Step = 86.0433%
Source Step = 86.2832%
Source Step = 86.5232%
Source Step = 86.7632%
Source Step = 87.0032%
vernier = 0.0118786
Source Step = 87.3511%
Source Step = 87.7111%
Source Step = 88.071%
Source Step = 88.431%
Source Step = 88.791%
vernier = 0.0178179
Source Step = 89.2949%
Source Step = 89.8348%
Source Step = 90.1656%
Source Step = 90.1993%
Source Step = 90.233%
Source Step = 90.2668%
Source Step = 90.3005%
Source Step = 90.3343%
Source Step = 90.368%
Source Step = 90.4018%
Source Step = 90.4355%
Source Step = 90.4693%
Source Step = 90.503%
Source Step = 90.5368%
Source Step = 90.5705%
Source Step = 90.6043%
Source Step = 90.638%
Source Step = 90.6717%
Source Step = 90.7055%
Source Step = 90.7392%
Source Step = 90.773%
Source Step = 90.8067%
Source Step = 90.8405%
Source Step = 90.8742%
Source Step = 90.908%
Source Step = 90.9417%
Source Step = 90.9755%
Source Step = 91.0092%
Source Step = 91.043%
Source Step = 91.0767%
Source Step = 91.1104%
Source Step = 91.1442%
Source Step = 91.1779%
Source Step = 91.2117%
Source Step = 91.2454%
Source Step = 91.2792%
Source Step = 91.3129%
Source Step = 91.3467%
Source Step = 91.3804%
Source Step = 91.4142%
Source Step = 91.4479%
Source Step = 91.4817%
Source Step = 91.5154%
Source Step = 91.5491%
Source Step = 91.5829%
Source Step = 91.6166%
Source Step = 91.6504%
Source Step = 91.6841%
Source Step = 91.7179%
Source Step = 91.7516%
Source Step = 91.7854%
Source Step = 91.8191%
Source Step = 91.8529%
Source Step = 91.8866%
Source Step = 91.9203%
Source Step = 91.9541%
Source Step = 91.9878%
Source Step = 92.0216%
Source Step = 92.0553%
Source Step = 92.0891%
Source Step = 92.1228%
Source Step = 92.1566%
Source Step = 92.1903%
Source Step = 92.2241%
Source Step = 92.2578%
Source Step = 92.2916%
Source Step = 92.3253%
Source Step = 92.359%
Source Step = 92.3928%
Source Step = 92.4265%
vernier = 0.00167043
Source Step = 92.4721%
Source Step = 92.5227%
Source Step = 92.5733%
Source Step = 92.624%
Source Step = 92.6746%
vernier = 0.00250565
Source Step = 92.7404%
Source Step = 92.8163%
Source Step = 92.8922%
Source Step = 92.9682%
Source Step = 93.0441%
vernier = 0.00375847
Source Step = 93.139%
Source Step = 93.2529%
Source Step = 93.3668%
Source Step = 93.4807%
Source Step = 93.5946%
vernier = 0.00563771
Source Step = 93.7313%
Source Step = 93.9021%
Source Step = 94.0729%
Source Step = 94.2438%
Source Step = 94.4146%
vernier = 0.00845657
Source Step = 94.6111%
Source Step = 94.8673%
Source Step = 95.1236%
Source Step = 95.3799%
Source Step = 95.6361%
vernier = 0.0126848
Source Step = 95.918%
Source Step = 96.3024%
Source Step = 96.6868%
Source Step = 97.0712%
Source Step = 97.4556%
vernier = 0.0190273
Source Step = 97.8592%
Source Step = 98.4357%
Source Step = 99.0123%
Source Step = 99.5889%
Source stepping succeeded in finding the operating point.



Total elapsed time: 29.774 seconds.

