Stray ".ends" card: .ends
LTspice 24.0.12 for Windows
Circuit: * C:\Users\leone\Documents\repos\C2\simulaciones\checkpoint2\reguladorB.asc
Start Time: Thu Sep 26 00:33:34 2024
Warning: Multiple definitions of model "2scr375p" Type: BJT
Warning: Multiple definitions of model "bc857b" Type: BJT
Warning: Multiple definitions of model "bc847c" Type: BJT
Warning: Multiple definitions of model "bc847b" Type: BJT
solver = Normal
Maximum thread count: 16
tnom = 27
temp = 27
method = modified trap
WARNING: Less than two connections to node n014.  This node is used by s1.
Instance "m:u2:1": Length shorter than recommended for a level 1 MOSFET.
Instance "m:u2:8": Length shorter than recommended for a level 1 MOSFET.
Instance "m:u2:2": Length shorter than recommended for a level 1 MOSFET.
Instance "m:u2:3": Length shorter than recommended for a level 1 MOSFET.
Instance "m:u2:4": Length shorter than recommended for a level 1 MOSFET.
Instance "m:u2:5": Length shorter than recommended for a level 1 MOSFET.
Instance "m:u2:19": Length shorter than recommended for a level 1 MOSFET.
Instance "m:u2:23": Length shorter than recommended for a level 1 MOSFET.
Instance "m:u2:53": Length shorter than recommended for a level 1 MOSFET.
Instance "m:u2:41": Length shorter than recommended for a level 1 MOSFET.
Instance "m:u2:42": Length shorter than recommended for a level 1 MOSFET.
Instance "m:u2:43": Length shorter than recommended for a level 1 MOSFET.
Instance "m:u2:44": Length shorter than recommended for a level 1 MOSFET.
Instance "m:u2:49": Length shorter than recommended for a level 1 MOSFET.
Instance "m:u2:50": Length shorter than recommended for a level 1 MOSFET.
Instance "m:u2:45": Length shorter than recommended for a level 1 MOSFET.
Instance "m:u2:46": Length shorter than recommended for a level 1 MOSFET.
Instance "m:u2:48": Length shorter than recommended for a level 1 MOSFET.
Instance "m:u2:51": Length shorter than recommended for a level 1 MOSFET.
Instance "m:u2:52": Length shorter than recommended for a level 1 MOSFET.
Instance "m:u2:54": Length shorter than recommended for a level 1 MOSFET.
Instance "m:u2:55": Length shorter than recommended for a level 1 MOSFET.
Early termination of direct N-R iteration.
Direct Newton iteration failed to find .op point.  (Use ".option noopiter" to skip.)
Starting Gmin stepping
Gmin = 10
vernier = 0.5
Gmin = 1.67772
vernier = 0.25
vernier = 0.125
vernier = 0.0625
vernier = 0.03125
vernier = 0.015625
vernier = 0.0078125
vernier = 0.00390625
vernier = 0.00195312
vernier = 0.000976562
vernier = 0.000488281
Gmin = 1.67772
Gmin = 0
Gmin stepping failed

Starting source stepping with srcstepmethod=0
Source Step = 3.0303%
Source Step = 33.3333%
Source Step = 38.3523%
Source Step = 38.8258%
Source Step = 39.2992%
Source Step = 39.7727%
Source Step = 40.2462%
vernier = 0.0234375
Source Step = 40.7434%
Source Step = 41.4536%
Source Step = 42.1638%
Source Step = 42.8741%
Source Step = 43.5843%
Source Step = 44.2945%
vernier = 0.0351562
Source Step = 45.3598%
Source Step = 46.4252%
Source Step = 47.4905%
Source Step = 48.5559%
Source Step = 49.6212%
vernier = 0.0527344
Source Step = 51.166%
Source Step = 52.764%
Source Step = 54.362%
Source Step = 55.96%
Source Step = 57.558%
vernier = 0.0791016
Source Step = 59.7952%
Source Step = 62.1922%
Source Step = 64.5893%
Source Step = 66.9863%
Source Step = 69.3833%
vernier = 0.118652
Source Step = 70.1249%
Source Step = 70.181%
Source Step = 70.2372%
Source Step = 70.2934%
Source Step = 70.3496%
vernier = 0.00278091
Source Step = 70.4142%
Source Step = 70.4985%
Source Step = 70.5827%
Source Step = 70.667%
Source Step = 70.7513%
vernier = 0.00417137
Source Step = 70.844%
Source Step = 70.9704%
Source Step = 71.0968%
Source Step = 71.2232%
Source Step = 71.3496%
vernier = 0.00625706
Source Step = 71.4823%
Source Step = 71.6719%
Source Step = 71.8615%
Source Step = 72.0511%
Source Step = 72.2407%
Source Step = 72.4304%
vernier = 0.00938559
Source Step = 72.7148%
Source Step = 72.9992%
Source Step = 73.2836%
Source Step = 73.568%
Source Step = 73.8524%
vernier = 0.0140784
Source Step = 74.2648%
Source Step = 74.6914%
Source Step = 75.118%
Source Step = 75.5447%
Source Step = 75.9713%
vernier = 0.0211176
Source Step = 76.5685%
Source Step = 77.2085%
Source Step = 77.8484%
Source Step = 78.4883%
Source Step = 79.1282%
vernier = 0.0316764
Source Step = 79.9921%
Source Step = 80.952%
Source Step = 81.9119%
Source Step = 82.8718%
Source Step = 83.8317%
vernier = 0.0475145
Source Step = 85.0796%
Source Step = 86.5194%
Source Step = 87.9592%
Source Step = 89.3991%
Source Step = 90.8389%
vernier = 0.0712718
Source Step = 92.6387%
Source Step = 94.7984%
Source Step = 96.9582%
Source Step = 99.1179%
Source stepping succeeded in finding the operating point.



Total elapsed time: 188.675 seconds.

