Stray ".ends" card: .ends
LTspice 24.0.12 for Windows
Circuit: * C:\Users\leone\Documents\repos\C2\simulaciones\checkpoint2\reguladorB.asc
Start Time: Fri Oct  4 16:56:25 2024
Fatal Error: Unknown subcircuit called in:
   xu2 n004 n008 5v 0 vs opa295
