Stray ".ends" card: .ends
LTspice 24.0.12 for Windows
Circuit: * C:\Users\leone\Documents\repos\C2\simulaciones\checkpoint2\reguladorB.asc
Start Time: Sat Sep 21 18:21:45 2024
Warning: Multiple definitions of model "2scr375p" Type: BJT
Warning: Multiple definitions of model "bc857b" Type: BJT
Warning: Multiple definitions of model "bc847c" Type: BJT
Warning: Multiple definitions of model "bc847b" Type: BJT
solver = Normal
Maximum thread count: 16
tnom = 27
temp = 27
method = modified trap
WARNING: Less than two connections to node n010.  This node is used by r30.
Instance "m:u2:1": Length shorter than recommended for a level 1 MOSFET.
Instance "m:u2:8": Length shorter than recommended for a level 1 MOSFET.
Instance "m:u2:2": Length shorter than recommended for a level 1 MOSFET.
Instance "m:u2:3": Length shorter than recommended for a level 1 MOSFET.
Instance "m:u2:4": Length shorter than recommended for a level 1 MOSFET.
Instance "m:u2:5": Length shorter than recommended for a level 1 MOSFET.
Instance "m:u2:19": Length shorter than recommended for a level 1 MOSFET.
Instance "m:u2:23": Length shorter than recommended for a level 1 MOSFET.
Instance "m:u2:53": Length shorter than recommended for a level 1 MOSFET.
Instance "m:u2:41": Length shorter than recommended for a level 1 MOSFET.
Instance "m:u2:42": Length shorter than recommended for a level 1 MOSFET.
Instance "m:u2:43": Length shorter than recommended for a level 1 MOSFET.
Instance "m:u2:44": Length shorter than recommended for a level 1 MOSFET.
Instance "m:u2:49": Length shorter than recommended for a level 1 MOSFET.
Instance "m:u2:50": Length shorter than recommended for a level 1 MOSFET.
Instance "m:u2:45": Length shorter than recommended for a level 1 MOSFET.
Instance "m:u2:46": Length shorter than recommended for a level 1 MOSFET.
Instance "m:u2:48": Length shorter than recommended for a level 1 MOSFET.
Instance "m:u2:51": Length shorter than recommended for a level 1 MOSFET.
Instance "m:u2:52": Length shorter than recommended for a level 1 MOSFET.
Instance "m:u2:54": Length shorter than recommended for a level 1 MOSFET.
Instance "m:u2:55": Length shorter than recommended for a level 1 MOSFET.
Early termination of direct N-R iteration.
Direct Newton iteration failed to find .op point.  (Use ".option noopiter" to skip.)
Starting Gmin stepping
Gmin = 10
Gmin = 1.07374
vernier = 0.5
vernier = 0.25
vernier = 0.125
vernier = 0.0625
vernier = 0.03125
vernier = 0.015625
Gmin = 1.1884
vernier = 0.0078125
vernier = 0.00390625
vernier = 0.00195312
vernier = 0.000976562
vernier = 0.000488281
Gmin = 0
Gmin stepping failed

Starting source stepping with srcstepmethod=0
Source Step = 3.0303%
Source Step = 33.3333%
Source Step = 63.6364%
Source Step = 72.7332%
Source Step = 72.7628%
Source Step = 72.7924%
Source Step = 72.822%
Source Step = 72.8516%
vernier = 0.00146484
Source Step = 72.8826%
Source Step = 72.927%
Source Step = 72.9714%
Source Step = 73.0158%
Source Step = 73.0602%
Source Step = 73.1046%
vernier = 0.00219727
Source Step = 73.1712%
Source Step = 73.2377%
Source Step = 73.3043%
Source Step = 73.3709%
Source Step = 73.4375%
vernier = 0.0032959
Source Step = 73.534%
Source Step = 73.6339%
Source Step = 73.7338%
Source Step = 73.8337%
Source Step = 73.9335%
vernier = 0.00494385
Source Step = 74.0734%
Source Step = 74.2232%
Source Step = 74.373%
Source Step = 74.5228%
Source Step = 74.6726%
vernier = 0.00741577
Source Step = 74.8749%
Source Step = 75.0996%
Source Step = 75.3243%
Source Step = 75.549%
Source Step = 75.7738%
vernier = 0.0111237
Source Step = 76.0659%
Source Step = 76.403%
Source Step = 76.7401%
Source Step = 77.0771%
Source Step = 77.4142%
vernier = 0.0166855
Source Step = 77.8356%
Source Step = 78.3412%
Source Step = 78.8468%
Source Step = 79.3524%
Source Step = 79.8581%
vernier = 0.0250282
Source Step = 80.4648%
Source Step = 81.2232%
Source Step = 81.9817%
Source Step = 82.7401%
Source Step = 83.4985%
vernier = 0.0375423
Source Step = 84.3707%
Source Step = 85.5084%
Source Step = 86.646%
Source Step = 87.7837%
Source Step = 88.9213%
vernier = 0.0563135
Source Step = 90.1727%
Source Step = 91.8792%
Source Step = 93.5857%
Source Step = 95.2921%
Source Step = 96.9986%
vernier = 0.0844703
Source Step = 98.7904%
Source stepping succeeded in finding the operating point.



Total elapsed time: 2.047 seconds.

