Stray ".ends" card: .ends
LTspice 24.0.12 for Windows
Circuit: * C:\Users\leone\Documents\repos\C2\simulaciones\checkpoint2\reguladorB_analisis_termico.asc
Start Time: Tue Sep 24 21:43:40 2024
Warning: Multiple definitions of model "2scr375p" Type: BJT
Warning: Multiple definitions of model "bc857b" Type: BJT
Warning: Multiple definitions of model "bc847c" Type: BJT
Warning: Multiple definitions of model "bc847b" Type: BJT
solver = Normal
Maximum thread count: 16
tnom = 27
temp = 27
method = modified trap
WARNING: Less than two connections to node n010.  This node is used by r30.
Instance "m:u2:1": Length shorter than recommended for a level 1 MOSFET.
Instance "m:u2:8": Length shorter than recommended for a level 1 MOSFET.
Instance "m:u2:2": Length shorter than recommended for a level 1 MOSFET.
Instance "m:u2:3": Length shorter than recommended for a level 1 MOSFET.
Instance "m:u2:4": Length shorter than recommended for a level 1 MOSFET.
Instance "m:u2:5": Length shorter than recommended for a level 1 MOSFET.
Instance "m:u2:19": Length shorter than recommended for a level 1 MOSFET.
Instance "m:u2:23": Length shorter than recommended for a level 1 MOSFET.
Instance "m:u2:53": Length shorter than recommended for a level 1 MOSFET.
Instance "m:u2:41": Length shorter than recommended for a level 1 MOSFET.
Instance "m:u2:42": Length shorter than recommended for a level 1 MOSFET.
Instance "m:u2:43": Length shorter than recommended for a level 1 MOSFET.
Instance "m:u2:44": Length shorter than recommended for a level 1 MOSFET.
Instance "m:u2:49": Length shorter than recommended for a level 1 MOSFET.
Instance "m:u2:50": Length shorter than recommended for a level 1 MOSFET.
Instance "m:u2:45": Length shorter than recommended for a level 1 MOSFET.
Instance "m:u2:46": Length shorter than recommended for a level 1 MOSFET.
Instance "m:u2:48": Length shorter than recommended for a level 1 MOSFET.
Instance "m:u2:51": Length shorter than recommended for a level 1 MOSFET.
Instance "m:u2:52": Length shorter than recommended for a level 1 MOSFET.
Instance "m:u2:54": Length shorter than recommended for a level 1 MOSFET.
Instance "m:u2:55": Length shorter than recommended for a level 1 MOSFET.
Early termination of direct N-R iteration.
Direct Newton iteration failed to find .op point.  (Use ".option noopiter" to skip.)
Starting Gmin stepping
Gmin = 10
vernier = 0.5
Gmin = 1.86414
vernier = 0.666667
vernier = 0.333333
vernier = 0.166667
vernier = 0.0833333
Gmin = 1.16377
vernier = 0.0416667
vernier = 0.0208333
vernier = 0.0104167
vernier = 0.00520833
vernier = 0.00260417
vernier = 0.00130208
vernier = 0.000651042
Gmin = 1.15177
vernier = 0.000488281
Gmin = 0
Gmin stepping failed

Starting source stepping with srcstepmethod=0
Source Step = 3.0303%
Source Step = 33.3333%
Source Step = 46.7803%
vernier = 0.015625
Source Step = 47.0644%
Source Step = 47.5379%
Source Step = 48.0114%
Source Step = 48.4848%
Source Step = 48.9583%
vernier = 0.0234375
Source Step = 49.6449%
Source Step = 50.3551%
Source Step = 51.0653%
Source Step = 51.7756%
Source Step = 52.4858%
vernier = 0.0351562
Source Step = 53.4801%
Source Step = 54.5455%
Source Step = 55.6108%
Source Step = 56.6761%
Source Step = 57.7415%
vernier = 0.0527344
Source Step = 59.1797%
Source Step = 60.7777%
Source Step = 62.3757%
Source Step = 63.9737%
Source Step = 65.5717%
vernier = 0.0791016
Source Step = 67.6491%
Source Step = 70.0462%
Source Step = 72.4432%
Source Step = 74.8402%
Source Step = 77.2372%
vernier = 0.118652
Source Step = 80.2335%
Source Step = 83.829%
Source Step = 87.4245%
Source Step = 91.0201%
Source Step = 94.6156%
vernier = 0.177979
Source Step = 98.9302%
Source stepping succeeded in finding the operating point.



Total elapsed time: 3.011 seconds.

