Stray ".ends" card: .ends
LTspice 24.0.12 for Windows
Circuit: * C:\Users\leone\Documents\repos\C2\simulaciones\checkpoint2\reguladorB.asc
Start Time: Fri Sep 27 16:17:55 2024
Warning: Multiple definitions of model "2scr375p" Type: BJT
Warning: Multiple definitions of model "bc857b" Type: BJT
Warning: Multiple definitions of model "bc847c" Type: BJT
Warning: Multiple definitions of model "bc847b" Type: BJT
solver = Normal
Maximum thread count: 16
tnom = 27
temp = 27
method = modified trap
Instance "m:u2:1": Length shorter than recommended for a level 1 MOSFET.
Instance "m:u2:8": Length shorter than recommended for a level 1 MOSFET.
Instance "m:u2:2": Length shorter than recommended for a level 1 MOSFET.
Instance "m:u2:3": Length shorter than recommended for a level 1 MOSFET.
Instance "m:u2:4": Length shorter than recommended for a level 1 MOSFET.
Instance "m:u2:5": Length shorter than recommended for a level 1 MOSFET.
Instance "m:u2:19": Length shorter than recommended for a level 1 MOSFET.
Instance "m:u2:23": Length shorter than recommended for a level 1 MOSFET.
Instance "m:u2:53": Length shorter than recommended for a level 1 MOSFET.
Instance "m:u2:41": Length shorter than recommended for a level 1 MOSFET.
Instance "m:u2:42": Length shorter than recommended for a level 1 MOSFET.
Instance "m:u2:43": Length shorter than recommended for a level 1 MOSFET.
Instance "m:u2:44": Length shorter than recommended for a level 1 MOSFET.
Instance "m:u2:49": Length shorter than recommended for a level 1 MOSFET.
Instance "m:u2:50": Length shorter than recommended for a level 1 MOSFET.
Instance "m:u2:45": Length shorter than recommended for a level 1 MOSFET.
Instance "m:u2:46": Length shorter than recommended for a level 1 MOSFET.
Instance "m:u2:48": Length shorter than recommended for a level 1 MOSFET.
Instance "m:u2:51": Length shorter than recommended for a level 1 MOSFET.
Instance "m:u2:52": Length shorter than recommended for a level 1 MOSFET.
Instance "m:u2:54": Length shorter than recommended for a level 1 MOSFET.
Instance "m:u2:55": Length shorter than recommended for a level 1 MOSFET.
Early termination of direct N-R iteration.
Direct Newton iteration failed to find .op point.  (Use ".option noopiter" to skip.)
Starting Gmin stepping
Gmin = 10
vernier = 0.5
vernier = 0.25
vernier = 0.125
vernier = 0.0625
Gmin = 8.61953
vernier = 0.03125
vernier = 0.015625
vernier = 0.0078125
vernier = 0.00390625
Gmin = 8.47038
vernier = 0.00195312
vernier = 0.000976562
vernier = 0.000488281
Gmin = 0
Gmin stepping failed

Starting source stepping with srcstepmethod=0
Source Step = 3.0303%
Source Step = 33.3333%
Source Step = 63.6364%
Source Step = 69.7443%
Source Step = 69.8627%
Source Step = 69.9811%
Source Step = 70.0994%
Source Step = 70.2178%
vernier = 0.00585938
Source Step = 70.3539%
Source Step = 70.5315%
Source Step = 70.709%
Source Step = 70.8866%
Source Step = 71.0642%
vernier = 0.00878906
Source Step = 71.2595%
Source Step = 71.5258%
Source Step = 71.7921%
Source Step = 72.0585%
Source Step = 72.3248%
vernier = 0.0131836
Source Step = 72.6045%
Source Step = 73.004%
Source Step = 73.4035%
Source Step = 73.803%
Source Step = 74.2025%
Source Step = 74.602%
vernier = 0.0197754
Source Step = 75.2012%
Source Step = 75.8005%
Source Step = 76.3997%
Source Step = 76.999%
Source Step = 77.5982%
vernier = 0.0296631
Source Step = 78.4672%
Source Step = 79.366%
Source Step = 80.2649%
Source Step = 81.1638%
Source Step = 82.0627%
vernier = 0.0444946
Source Step = 83.3211%
Source Step = 84.6694%
Source Step = 86.0178%
Source Step = 87.3661%
Source Step = 88.7144%
vernier = 0.0667419
Source Step = 90.5346%
Source Step = 92.5571%
Source Step = 94.5796%
Source Step = 96.6021%
Source Step = 98.6246%
vernier = 0.100113
Source stepping succeeded in finding the operating point.



Total elapsed time: 5.272 seconds.

