Stray ".ends" card: .ends
LTspice 24.0.12 for Windows
Circuit: * F:\uni\DCE\C2\simulaciones\checkpoint2\reguladorA.asc
Start Time: Sat Sep 21 21:51:27 2024
Warning: Multiple definitions of model "2scr375p" Type: BJT
Warning: Multiple definitions of model "bc857b" Type: BJT
Warning: Multiple definitions of model "bc847c" Type: BJT
Warning: Multiple definitions of model "bc847b" Type: BJT
solver = Normal
Maximum thread count: 4
tnom = 27
temp = 27
method = modified trap
WARNING: Node NC_01 is floating.
WARNING: Node NC_02 is floating.
WARNING: Node NC_04 is floating.

WARNING: Less than two connections to node nc_01.  This node is used by c4.
WARNING: Less than two connections to node nc_02.  This node is used by c6.
WARNING: Less than two connections to node nc_03.  This node is used by l1.
WARNING: Less than two connections to node nc_04.  This node is used by l1.
Instance "m:u2:1": Length shorter than recommended for a level 1 MOSFET.
Instance "m:u2:8": Length shorter than recommended for a level 1 MOSFET.
Instance "m:u2:2": Length shorter than recommended for a level 1 MOSFET.
Instance "m:u2:3": Length shorter than recommended for a level 1 MOSFET.
Instance "m:u2:4": Length shorter than recommended for a level 1 MOSFET.
Instance "m:u2:5": Length shorter than recommended for a level 1 MOSFET.
Instance "m:u2:19": Length shorter than recommended for a level 1 MOSFET.
Instance "m:u2:23": Length shorter than recommended for a level 1 MOSFET.
Instance "m:u2:53": Length shorter than recommended for a level 1 MOSFET.
Instance "m:u2:41": Length shorter than recommended for a level 1 MOSFET.
Instance "m:u2:42": Length shorter than recommended for a level 1 MOSFET.
Instance "m:u2:43": Length shorter than recommended for a level 1 MOSFET.
Instance "m:u2:44": Length shorter than recommended for a level 1 MOSFET.
Instance "m:u2:49": Length shorter than recommended for a level 1 MOSFET.
Instance "m:u2:50": Length shorter than recommended for a level 1 MOSFET.
Instance "m:u2:45": Length shorter than recommended for a level 1 MOSFET.
Instance "m:u2:46": Length shorter than recommended for a level 1 MOSFET.
Instance "m:u2:48": Length shorter than recommended for a level 1 MOSFET.
Instance "m:u2:51": Length shorter than recommended for a level 1 MOSFET.
Instance "m:u2:52": Length shorter than recommended for a level 1 MOSFET.
Instance "m:u2:54": Length shorter than recommended for a level 1 MOSFET.
Instance "m:u2:55": Length shorter than recommended for a level 1 MOSFET.
Early termination of direct N-R iteration.
Direct Newton iteration failed to find .op point.  (Use ".option noopiter" to skip.)
Starting Gmin stepping
Gmin = 10
vernier = 0.5
vernier = 0.25
vernier = 0.125
vernier = 0.0625
Gmin = 8.61953
vernier = 0.03125
vernier = 0.015625
vernier = 0.0078125
vernier = 0.00390625
Gmin = 8.47038
vernier = 0.00195312
vernier = 0.000976562
vernier = 0.000488281
Gmin = 0
Gmin stepping failed

Starting source stepping with srcstepmethod=0
Source Step = 3.0303%
Source Step = 33.3333%
Source Step = 38.4943%
Source Step = 38.6009%
Source Step = 38.7192%
Source Step = 38.8376%
Source Step = 38.956%
Source Step = 39.0743%
vernier = 0.00585938
Source Step = 39.2401%
Source Step = 39.4176%
Source Step = 39.5952%
Source Step = 39.7727%
Source Step = 39.9503%
vernier = 0.00878906
Source Step = 40.19%
Source Step = 40.4563%
Source Step = 40.7227%
Source Step = 40.989%
Source Step = 41.2553%
vernier = 0.0131836
Source Step = 41.6016%
Source Step = 42.0011%
Source Step = 42.4006%
Source Step = 42.8001%
Source Step = 43.1996%
vernier = 0.0197754
Source Step = 43.699%
Source Step = 44.2982%
Source Step = 44.8975%
Source Step = 45.4967%
Source Step = 46.096%
vernier = 0.0296631
Source Step = 46.8151%
Source Step = 47.714%
Source Step = 48.6128%
Source Step = 49.5117%
Source Step = 50.4106%
vernier = 0.0444946
Source Step = 51.4443%
Source Step = 52.7926%
Source Step = 54.141%
Source Step = 55.4893%
Source Step = 56.8376%
vernier = 0.0667419
Source Step = 58.3208%
Source Step = 60.3432%
Source Step = 62.3657%
Source Step = 64.3882%
Source Step = 66.4107%
vernier = 0.100113
Source Step = 68.5343%
Source Step = 71.568%
Source Step = 74.6017%
Source Step = 77.6355%
Source Step = 80.6692%
Source Step = 83.7029%
vernier = 0.150169
Source Step = 88.2535%
Source Step = 92.8041%
Source Step = 97.3547%
Source stepping succeeded in finding the operating point.



Total elapsed time: 3.013 seconds.

