Stray ".ends" card: .ends
LTspice 24.0.12 for Windows
Circuit: * F:\uni\DCE\C2\simulaciones\checkpoint2\reguladorA.asc
Start Time: Tue Sep 24 23:23:29 2024
Warning: Multiple definitions of model "2scr375p" Type: BJT
Warning: Multiple definitions of model "bc857b" Type: BJT
Warning: Multiple definitions of model "bc847c" Type: BJT
Warning: Multiple definitions of model "bc847b" Type: BJT
solver = Normal
Maximum thread count: 4
tnom = 27
temp = 27
method = modified trap
WARNING: Node NC_01 is floating.

WARNING: Less than two connections to node n010.  This node is used by r6.
WARNING: Less than two connections to node nc_01.  This node is used by c6.
Instance "m:u2:1": Length shorter than recommended for a level 1 MOSFET.
Instance "m:u2:8": Length shorter than recommended for a level 1 MOSFET.
Instance "m:u2:2": Length shorter than recommended for a level 1 MOSFET.
Instance "m:u2:3": Length shorter than recommended for a level 1 MOSFET.
Instance "m:u2:4": Length shorter than recommended for a level 1 MOSFET.
Instance "m:u2:5": Length shorter than recommended for a level 1 MOSFET.
Instance "m:u2:19": Length shorter than recommended for a level 1 MOSFET.
Instance "m:u2:23": Length shorter than recommended for a level 1 MOSFET.
Instance "m:u2:53": Length shorter than recommended for a level 1 MOSFET.
Instance "m:u2:41": Length shorter than recommended for a level 1 MOSFET.
Instance "m:u2:42": Length shorter than recommended for a level 1 MOSFET.
Instance "m:u2:43": Length shorter than recommended for a level 1 MOSFET.
Instance "m:u2:44": Length shorter than recommended for a level 1 MOSFET.
Instance "m:u2:49": Length shorter than recommended for a level 1 MOSFET.
Instance "m:u2:50": Length shorter than recommended for a level 1 MOSFET.
Instance "m:u2:45": Length shorter than recommended for a level 1 MOSFET.
Instance "m:u2:46": Length shorter than recommended for a level 1 MOSFET.
Instance "m:u2:48": Length shorter than recommended for a level 1 MOSFET.
Instance "m:u2:51": Length shorter than recommended for a level 1 MOSFET.
Instance "m:u2:52": Length shorter than recommended for a level 1 MOSFET.
Instance "m:u2:54": Length shorter than recommended for a level 1 MOSFET.
Instance "m:u2:55": Length shorter than recommended for a level 1 MOSFET.
Early termination of direct N-R iteration.
Direct Newton iteration failed to find .op point.  (Use ".option noopiter" to skip.)
Starting Gmin stepping
Gmin = 10
vernier = 0.5
vernier = 0.25
vernier = 0.125
vernier = 0.0625
Gmin = 8.61953
vernier = 0.03125
vernier = 0.015625
vernier = 0.0078125
vernier = 0.00390625
Gmin = 8.47038
vernier = 0.00195312
vernier = 0.000976562
vernier = 0.000488281
Gmin = 0
Gmin stepping failed

Starting source stepping with srcstepmethod=0
Source Step = 3.0303%
Source Step = 33.3333%
vernier = 0.25
Source Step = 37.8788%
Source Step = 45.4545%
Source Step = 53.0303%
Source Step = 60.6061%
Source Step = 68.1818%
vernier = 0.375
Source Step = 79.1667%
Source Step = 80.9422%
Source Step = 81.0754%
Source Step = 81.1198%
Source Step = 81.1642%
Source Step = 81.2086%
Source Step = 81.253%
Source Step = 81.2973%
vernier = 0.00219727
Source Step = 81.3639%
Source Step = 81.4305%
Source Step = 81.4971%
Source Step = 81.5637%
Source Step = 81.6303%
vernier = 0.0032959
Source Step = 81.7268%
Source Step = 81.8267%
Source Step = 81.9266%
Source Step = 82.0264%
Source Step = 82.1263%
vernier = 0.00494385
Source Step = 82.2661%
Source Step = 82.416%
Source Step = 82.5658%
Source Step = 82.7156%
Source Step = 82.8654%
vernier = 0.00741577
Source Step = 83.0676%
Source Step = 83.2924%
Source Step = 83.5171%
Source Step = 83.7418%
Source Step = 83.9665%
vernier = 0.0111237
Source Step = 84.2587%
Source Step = 84.5957%
Source Step = 84.9328%
Source Step = 85.2699%
Source Step = 85.607%
vernier = 0.0166855
Source Step = 86.0283%
Source Step = 86.534%
Source Step = 87.0396%
Source Step = 87.5452%
Source Step = 88.0508%
vernier = 0.0250282
Source Step = 88.6576%
Source Step = 89.416%
Source Step = 90.1744%
Source Step = 90.9329%
Source Step = 91.6913%
vernier = 0.0375423
Source Step = 92.5635%
Source Step = 93.7011%
Source Step = 94.8388%
Source Step = 95.9764%
Source Step = 97.1141%
vernier = 0.0563135
Source Step = 98.3655%
Source Step = 100%
Source stepping succeeded in finding the operating point.



Total elapsed time: 2.276 seconds.

