Stray ".ends" card: .ends
LTspice 24.0.12 for Windows
Circuit: * C:\Users\leone\Documents\repos\C2\simulaciones\checkpoint2\reguladorB.asc
Start Time: Mon Sep 23 14:33:23 2024
Warning: Multiple definitions of model "2scr375p" Type: BJT
Warning: Multiple definitions of model "bc857b" Type: BJT
Warning: Multiple definitions of model "bc847c" Type: BJT
Warning: Multiple definitions of model "bc847b" Type: BJT
solver = Normal
Maximum thread count: 16
tnom = 27
temp = 27
method = modified trap
Instance "m:u2:1": Length shorter than recommended for a level 1 MOSFET.
Instance "m:u2:8": Length shorter than recommended for a level 1 MOSFET.
Instance "m:u2:2": Length shorter than recommended for a level 1 MOSFET.
Instance "m:u2:3": Length shorter than recommended for a level 1 MOSFET.
Instance "m:u2:4": Length shorter than recommended for a level 1 MOSFET.
Instance "m:u2:5": Length shorter than recommended for a level 1 MOSFET.
Instance "m:u2:19": Length shorter than recommended for a level 1 MOSFET.
Instance "m:u2:23": Length shorter than recommended for a level 1 MOSFET.
Instance "m:u2:53": Length shorter than recommended for a level 1 MOSFET.
Instance "m:u2:41": Length shorter than recommended for a level 1 MOSFET.
Instance "m:u2:42": Length shorter than recommended for a level 1 MOSFET.
Instance "m:u2:43": Length shorter than recommended for a level 1 MOSFET.
Instance "m:u2:44": Length shorter than recommended for a level 1 MOSFET.
Instance "m:u2:49": Length shorter than recommended for a level 1 MOSFET.
Instance "m:u2:50": Length shorter than recommended for a level 1 MOSFET.
Instance "m:u2:45": Length shorter than recommended for a level 1 MOSFET.
Instance "m:u2:46": Length shorter than recommended for a level 1 MOSFET.
Instance "m:u2:48": Length shorter than recommended for a level 1 MOSFET.
Instance "m:u2:51": Length shorter than recommended for a level 1 MOSFET.
Instance "m:u2:52": Length shorter than recommended for a level 1 MOSFET.
Instance "m:u2:54": Length shorter than recommended for a level 1 MOSFET.
Instance "m:u2:55": Length shorter than recommended for a level 1 MOSFET.
Early termination of direct N-R iteration.
Direct Newton iteration failed to find .op point.  (Use ".option noopiter" to skip.)
Starting Gmin stepping
Gmin = 10
vernier = 0.5
Gmin = 1.86414
vernier = 0.25
vernier = 0.125
vernier = 0.0625
Gmin = 1.79931
vernier = 0.03125
vernier = 0.015625
Gmin = 1.74411
vernier = 0.0208333
vernier = 0.0104167
vernier = 0.00520833
vernier = 0.00260417
vernier = 0.00130208
vernier = 0.000651042
vernier = 0.000488281
Gmin = 0
Gmin = 0
Gmin stepping failed

Starting source stepping with srcstepmethod=0
Source Step = 3.0303%
Source Step = 33.3333%
Source Step = 38.4943%
Source Step = 38.6364%
Source Step = 38.7547%
Source Step = 38.8731%
Source Step = 38.9915%
Source Step = 39.1098%
vernier = 0.00585938
Source Step = 39.2696%
Source Step = 39.4472%
Source Step = 39.6248%
Source Step = 39.8023%
Source Step = 39.9799%
vernier = 0.00878906
Source Step = 40.2107%
Source Step = 40.477%
Source Step = 40.7434%
Source Step = 41.0097%
Source Step = 41.276%
vernier = 0.0131836
Source Step = 41.609%
Source Step = 42.0085%
Source Step = 42.408%
Source Step = 42.8075%
Source Step = 43.207%
vernier = 0.0197754
Source Step = 43.6864%
Source Step = 44.2856%
Source Step = 44.8849%
Source Step = 45.4841%
Source Step = 46.0834%
vernier = 0.0296631
Source Step = 46.7725%
Source Step = 47.6714%
Source Step = 48.5703%
Source Step = 49.4692%
Source Step = 50.3681%
vernier = 0.0444946
Source Step = 51.3568%
Source Step = 52.7052%
Source Step = 54.0535%
Source Step = 55.4018%
Source Step = 56.7501%
vernier = 0.0667419
Source Step = 58.1659%
Source Step = 60.1883%
Source Step = 62.2108%
Source Step = 64.2333%
Source Step = 66.2558%
Source Step = 68.2783%
vernier = 0.100113
Source Step = 71.312%
Source Step = 74.3457%
Source Step = 74.6775%
Source Step = 74.7249%
Source Step = 74.7723%
Source Step = 74.8197%
Source Step = 74.8671%
vernier = 0.0023464
Source Step = 74.924%
Source Step = 74.9951%
Source Step = 75.0662%
Source Step = 75.1373%
Source Step = 75.2084%
vernier = 0.00351959
Source Step = 75.2902%
Source Step = 75.3969%
Source Step = 75.5035%
Source Step = 75.6102%
Source Step = 75.7168%
vernier = 0.00527939
Source Step = 75.8341%
Source Step = 75.9941%
Source Step = 76.1541%
Source Step = 76.3141%
Source Step = 76.4741%
vernier = 0.00791909
Source Step = 76.642%
Source Step = 76.882%
Source Step = 77.122%
Source Step = 77.362%
Source Step = 77.6019%
Source Step = 77.8419%
vernier = 0.0118786
Source Step = 78.2019%
Source Step = 78.5618%
Source Step = 78.9218%
Source Step = 79.2817%
Source Step = 79.6417%
vernier = 0.0178179
Source Step = 80.1636%
Source Step = 80.7036%
Source Step = 81.2435%
Source Step = 81.7835%
Source Step = 82.3234%
vernier = 0.0267269
Source Step = 83.0793%
Source Step = 83.8892%
Source Step = 84.6991%
Source Step = 85.509%
Source Step = 86.3189%
vernier = 0.0400904
Source Step = 87.4123%
Source Step = 88.6272%
Source Step = 89.842%
Source Step = 90.1306%
Source Step = 90.2065%
Source Step = 90.2824%
Source Step = 90.3583%
Source Step = 90.4343%
vernier = 0.00375847
Source Step = 90.5254%
Source Step = 90.6393%
Source Step = 90.7532%
Source Step = 90.8671%
Source Step = 90.981%
vernier = 0.00563771
Source Step = 91.1119%
Source Step = 91.2828%
Source Step = 91.4536%
Source Step = 91.6245%
Source Step = 91.7953%
vernier = 0.00845657
Source Step = 91.9832%
Source Step = 92.2395%
Source Step = 92.4957%
Source Step = 92.752%
Source Step = 93.0083%
vernier = 0.0126848
Source Step = 93.2773%
Source Step = 93.6617%
Source Step = 94.0461%
Source Step = 94.4305%
Source Step = 94.8149%
Source Step = 95.1993%
vernier = 0.0190273
Source Step = 95.7759%
Source Step = 96.3524%
Source Step = 96.929%
Source Step = 97.5056%
Source Step = 98.0822%
vernier = 0.0285409
Source Step = 98.9182%
Source Step = 99.7831%
Source stepping succeeded in finding the operating point.



Total elapsed time: 3.254 seconds.

