LTspice 24.0.12 for Windows
Circuit: * C:\Users\leone\Documents\repos\C2\simulaciones\checkpoint4\Draft1.asc
Start Time: Thu Dec  5 18:54:58 2024
solver = Normal
Maximum thread count: 16
tnom = 27
temp = 27
method = modified trap
.OP point found by inspection.
Total elapsed time: 0.053 seconds.

