LTspice 24.0.12 for Windows
Circuit: * C:\Users\leone\Documents\repos\C2\simulaciones\checkpoint4\Ejemplo de modulador triangular en LTSPICE.asc
Start Time: Mon Nov 11 20:11:18 2024
solver = Normal
Maximum thread count: 16
tnom = 27
temp = 27
method = modified trap
Direct Newton iteration for .op point succeeded.
Heightened Def Con from 7.52547e-05 +++++++++++++to 7.52547e-05
Heightened Def Con from 7.52547e-05 to 7.52577e-05
Total elapsed time: 0.536 seconds.

